LAMMPS (16 Mar 2018)
timestep	0.0005
variable   	t equal 300
units		metal
atom_style	atomic

read_data	data.si
  orthogonal box = (-0.678875 -0.678875 -0.678875) to (86.2171 86.2171 86.2171)
  reading atoms ...
  32768 atoms

thermo		1000

neighbor        2 bin
neigh_modify    delay 10
neighbor        2.0 nsq
neigh_modify    delay 0 every 1 check yes

pair_style	tersoff
pair_coeff	* * SiCGe.tersoff Si(D) Si(D)

dump		snap all atom 1000 snap.lammpstrj

velocity        all create 300 14238

### EQUILIBRATE ###
fix             NVT all nvt temp $t $t 0.05
fix             NVT all nvt temp 300 $t 0.05
fix             NVT all nvt temp 300 300 0.05
run             50000
  update every 1 steps, delay 0 steps, check yes
Step Temp E_pair E_mol TotEng Press
0          300   -151702.51            0   -150431.87    2611.8729
Averages over the last 26 of 51 rows, steps 25000 to 50000:
Temp E_pair E_mol TotEng Press
299.286 -150417 0 -149150 6022.29
Loop time of 945.515 on 12 procs for 50000 steps with 32768 atoms

unfix           NVT

fix             NPT all npt temp $t $t 0.05 x 0 0 0.5 y 0 0 0.5 z 0 0 0.5 couple none
fix             NPT all npt temp 300 $t 0.05 x 0 0 0.5 y 0 0 0.5 z 0 0 0.5 couple none
fix             NPT all npt temp 300 300 0.05 x 0 0 0.5 y 0 0 0.5 z 0 0 0.5 couple none
run             50000
Step Temp E_pair E_mol TotEng Press Volume
50000    300.82555   -150424.78            0   -149150.64    6039.1896    656144.29
Averages over the last 26 of 51 rows, steps 75000 to 100000:
Temp E_pair E_mol TotEng Press Volume
300.021 -150412 0 -149142 78.7615 660220
Loop time of 938.571 on 12 procs for 50000 steps with 32768 atoms

unfix		NPT

fix             NVE all nve
run             50000
Step Temp E_pair E_mol TotEng Press
100000    300.57865   -150411.63            0   -149138.54    169.38817
Averages over the last 26 of 51 rows, steps 125000 to 150000:
Temp E_pair E_mol TotEng Press
300.439 -150411 0 -149139 169.909
Loop time of 1017.85 on 12 procs for 50000 steps with 32768 atoms

unfix           NVE
##################

### THERMALIZE ###
fix             NVT all nvt temp $t $t 0.05
fix             NVT all nvt temp 300 $t 0.05
fix             NVT all nvt temp 300 300 0.05
run             50000
Step Temp E_pair E_mol TotEng Press
150000     300.0355   -150409.34            0   -149138.55    178.80577
Averages over the last 26 of 51 rows, steps 175000 to 200000:
Temp E_pair E_mol TotEng Press
299.916 -150415 0 -149144 138.184
Loop time of 1056.92 on 12 procs for 50000 steps with 32768 atoms

unfix           NVT
##################

### COLLECT VELS ###
fix		NVE all nve

dump		vels all custom 40 vels.dat id type vx vy vz
dump_modify	vels format line "%d %d %0.8g %0.8g %0.8g"
dump_modify	vels sort id

dump		pos all custom 10000 pos.dat id type x y z
dump_modify     pos format line "%d %d %0.8g %0.8g %0.8g"
dump_modify     pos sort id

run		500000
Step Temp E_pair E_mol TotEng Press
200000    299.21592   -150411.55            0   -149144.23    153.12664
Averages over the last 251 of 501 rows, steps 450000 to 700000:
Temp E_pair E_mol TotEng Press
299.743 -150414 0 -149144 136.197
Loop time of 10778.3 on 12 procs for 500000 steps with 32768 atoms

###################
