LAMMPS (16 Mar 2018)
atom_style	atomic
units		metal
dimension	3
boundary	p p p
processors	* * *

# ---------------------------------------------------------
read_data       data.relax
  orthogonal box = (-0.4603 -0.79725 -0.3255) to (54.7757 31.0928 72.5865)
  reading atoms ...
  11200 atoms
pair_style	tersoff
pair_coeff	* * GaN.tersoff Ga N Ga N Ga N Ga N
Reading potential file GaN.tersoff with DATE: 2007-10-22

#--------------- Simulation control parameters ----------------------------------------------------------
variable	Tlo equal 100
variable	T equal 500              				# Kelvin
variable	Thi equal 1500
variable	V equal vol             				# A^3
variable	dt equal 0.0002          				# 0.8fs; in picoseconds = 1e-12 s
variable	NRUNNVT equal 1000000
variable        NRUNNPT equal 200000
variable	NRUNanneal equal 500000
variable	NRUNNVE equal 200000
variable	thermocalc equal 2000
variable	snapprint equal 10000
variable        Lx equal xhi-xlo
variable        Ly equal yhi-ylo
Lx = 55.236 A
Ly = 31.89 A
timestep  	0.0002

# -------------- Print structure -----------------------
dump		snapxyz all custom 100 sisnap.lammpstrj id type x y z

# -------------- Relax Structure at 0K --------------------------
thermo_style    custom step temp pe etotal press pxx pyy pzz lx ly lz fmax fnorm
thermo		100
fix		filmrelax all box/relax x 0 y 0 z 0 couple none		#Try different methods to relax different systems
minimize	0.0 5e-10 100000 10000000
  update every 1 steps, delay 0 steps, check yes
Step Temp PotEng TotEng Press Pxx Pyy Pzz Lx Ly Lz Fmax Fnorm
0            0   -50706.543   -50706.543   -15740.951   -15665.731   -15607.597   -15949.524       55.236        31.89       72.912 0.0015362183    0.1652057
Loop time of 0.0502854 on 72 procs for 49 steps with 11200 atoms

Minimization stats:
  Stopping criterion = force tolerance
  Energy initial, next-to-last, final =
  Force two-norm initial, final = 2185.63 4.06956e-10
  Force max component initial, final = 1278.54 3.42408e-10
  Final line search alpha, max atom move = 1 3.42408e-10
  Iterations, force evaluations = 49 72

min_style	sd
min_modify	dmax 0.2
write_restart	restart.min.*

# -------------- NVT Thermalization -----------------------------
thermo_style    custom step temp pe etotal press pxx pyy pzz lx ly lz
dump_modify     snapxyz every 10000
restart		500000 restart
thermo          2000
velocity	all create 100 14364 mom yes rot yes dist gaussian
fix		NVT all nvt temp 100 1500 0.05 tchain 10
run		1000000
Step Temp PotEng TotEng Press Pxx Pyy Pzz Lx Ly Lz
49          100   -50711.416   -50566.658    1213.1928    1214.5049    1214.8028    1210.2707     55.09523    31.809246    72.721994
Averages over the last 251 of 502 rows, steps 502000 to 1000049:
Temp PotEng TotEng Press Pxx Pyy Pzz Lx Ly Lz
1152.26 -48903.4 -47235.4 8288.13 -12274.5 -12226.4 49365.3 55.0952 31.8092 72.722
Loop time of 967.405 on 72 procs for 1000000 steps with 11200 atoms

unfix		NVT
write_restart	restart.NVT.*

# ------------ Annealing -----------------------------------------
fix             equil all langevin 1500 500 0.05 20612 tally yes zero yes
fix             NVE all nve
run             500000
Step Temp PotEng TotEng Press Pxx Pyy Pzz Lx Ly Lz
1000049    1494.1403   -48385.886   -46222.992    20088.006   -8368.7581   -7035.0885    75667.866     55.09523    31.809246    72.721994
Averages over the last 126 of 252 rows, steps 1252000 to 1500049:
Temp PotEng TotEng Press Pxx Pyy Pzz Lx Ly Lz
746.455 -49496.2 -48415.6 -479.77 -13340.9 -13468.3 25369.9 55.0952 31.8092 72.722
Loop time of 555.562 on 72 procs for 500000 steps with 11200 atoms

unfix           equil
unfix           NVE
write_restart	restart.anneal.300.*

# -------------- NVE Equilibration ----------------------------------
fix             NVE all nve
dump            snapNVExyz all custom 10000 snap.NVE.lammpstrj id type x y z
run             200000
Step Temp PotEng TotEng Press Pxx Pyy Pzz Lx Ly Lz
1500049    502.06363   -49894.037   -49167.258    1056.2889   -7455.9067   -5891.4385    16516.212     55.09523    31.809246    72.721994
Averages over the last 51 of 102 rows, steps 1602000 to 1700049:
Temp PotEng TotEng Press Pxx Pyy Pzz Lx Ly Lz
501.205 -49892.8 -49167.3 1882.36 -5077.33 -5186.93 15911.3 55.0952 31.8092 72.722
Loop time of 167.604 on 72 procs for 200000 steps with 11200 atoms

unfix           NVE
write_restart   restart.anneal.NVE.*

# ------------ Pressure Relaxation -----------------------------------------
fix             NPT all npt temp $T $T 0.05 x 0 0 0.5 y 0 0 0.5 z 0 0 0.5 couple none tchain 10
fix             NPT all npt temp 500 $T 0.05 x 0 0 0.5 y 0 0 0.5 z 0 0 0.5 couple none tchain 10
fix             NPT all npt temp 500 500 0.05 x 0 0 0.5 y 0 0 0.5 z 0 0 0.5 couple none tchain 10
run             200000
Step Temp PotEng TotEng Press Pxx Pyy Pzz Lx Ly Lz
1700049    502.77042   -49895.048   -49167.245    2943.5384   -4984.5861   -3610.4134    17425.615     55.09523    31.809246    72.721994
Averages over the last 51 of 102 rows, steps 1802000 to 1900049:
Temp PotEng TotEng Press Pxx Pyy Pzz Lx Ly Lz
500.465 -49870.4 -49145.9 25.7021 77.0369 62.9005 -62.8311 54.8126 31.6411 73.2419
Loop time of 187.981 on 72 procs for 200000 steps with 11200 atoms

unfix           NPT
write_restart   restart.NPT.300.*

# -------------- NVE Equilibration ----------------------------------
fix             NVE all nve
dump            snapNVEPxyz all custom 10000 snap.NVE.pressure.lammpstrj id type x y z
run             200000
Step Temp PotEng TotEng Press Pxx Pyy Pzz Lx Ly Lz
1900049    504.81798   -49872.157   -49141.391    1507.8961    1271.4798    674.61592    2577.5927    54.733051    31.698995    73.199006
Averages over the last 51 of 102 rows, steps 2002000 to 2100049:
Temp PotEng TotEng Press Pxx Pyy Pzz Lx Ly Lz
501.902 -49867.9 -49141.4 679.135 1097.69 -621.26 1560.98 54.7331 31.699 73.199
Loop time of 175.511 on 72 procs for 200000 steps with 11200 atoms

unfix           NVE
write_restart   restart.NVE.pressure.*

write_restart   restart.final.*
write_data	data.relaxed nocoeff
