LAMMPS (16 Mar 2018)
atom_style	atomic
units		metal
dimension	3
boundary	p p p
processors	* * *
# ---------------------------------------------------------
read_data       data.relax
  orthogonal box = (-0.678875 -0.678875 -0.678875) to (107.941 31.9071 31.9071)
  reading atoms ...
  5760 atoms
pair_style	tersoff
pair_coeff	* * SiCGe.tersoff Si(D) Ge
#--------------- Simulation control parameters ----------------------------------------------------------
variable	T equal 300              				# Kelvin
variable	V equal vol             				# A^3
variable	dt equal 0.0005          				# 0.8fs; in picoseconds = 1e-12 s
variable	NRUNNVT equal 200000
variable        NRUNNPT equal 200000
variable	NRUNanneal equal 5600000
variable	NRUNNVE equal 200000
variable	thermocalc equal 20000
variable	snapprint equal 200000
variable        Lx equal xhi-xlo
variable        Ly equal yhi-ylo
Lx = 108.62 A
Ly = 32.586 A
timestep  	0.0005
thermo_style	custom step temp pe etotal press pxx pyy pzz lx ly lz
# -------------- Print structure -----------------------
dump		snapxyz all custom 1000 sisnap.lammpstrj id type x y z
# -------------- Relax Structure at 0K --------------------------
fix		filmrelax all box/relax x 0 y 0 z 0 couple none		#Try different methods to relax different systems
minimize	0.0 1.0e-8 100000 10000000
  update every 1 steps, delay 0 steps, check yes
Step Temp PotEng TotEng Press Pxx Pyy Pzz Lx Ly Lz
0            0   -24171.702   -24171.702    60522.883    60522.883    60522.883    60522.883       108.62       32.586       32.586
Loop time of 44.017 on 16 procs for 16077 steps with 5760 atoms

Minimization stats:
  Stopping criterion = force tolerance
  Energy initial, next-to-last, final =
  Force two-norm initial, final = 7546.44 8.56973e-09
  Force max component initial, final = 4356.94 2.70016e-09
  Final line search alpha, max atom move = 1 2.70016e-09
  Iterations, force evaluations = 16077 28446

min_style	sd
min_modify	dmax 0.2
thermo		100
write_restart	restart.min.*
# -------------- NVT Thermalization ------------------------------
dump_modify     snapxyz every 200000

restart		500000 restart
thermo          20000
velocity	all create 750 31497 mom yes rot yes dist gaussian
fix		NVT all nvt temp 750 750 0.05 tchain 10
run		200000
Step Temp PotEng TotEng Press Pxx Pyy Pzz Lx Ly Lz
16077          750   -24377.354   -23819.047    4865.6371    4865.7546    4921.2458    4809.9108    110.22807    33.344951    33.344951
Averages over the last 6 of 12 rows, steps 120000 to 216077:
Temp PotEng TotEng Press Pxx Pyy Pzz Lx Ly Lz
753.21 -23803.9 -23243.2 13931.2 14412.2 13678.2 13703.3 110.228 33.345 33.345
Loop time of 285.78 on 16 procs for 200000 steps with 5760 atoms

unfix		NVT
write_restart	restart.NVT.*
# ------------ Annealing -----------------------------------------
fix             equil all langevin 750 300 0.05 3496 tally yes zero yes
fix             NVE all nve
run             5600000
Step Temp PotEng TotEng Press Pxx Pyy Pzz Lx Ly Lz
216077    748.59568   -23812.711    -23255.45    13588.918    14111.235    13276.055    13379.464    110.22807    33.344951    33.344951
Averages over the last 141 of 282 rows, steps 3020000 to 5816077:
Temp PotEng TotEng Press Pxx Pyy Pzz Lx Ly Lz
412.112 -24065.3 -23758.5 7734.42 8009.17 7600.05 7594.03 110.228 33.345 33.345
Loop time of 13020.4 on 16 procs for 5600000 steps with 5760 atoms

unfix           equil
unfix           NVE
write_restart	restart.anneal.300.*
# -------------- NVE Equilibration ----------------------------------
fix             NVE all nve
dump            snapNVExyz all custom 200000 snap.NVE.lammpstrj id type x y z
run             200000
Step Temp PotEng TotEng Press Pxx Pyy Pzz Lx Ly Lz
5816077    298.95848   -24148.037    -23925.49      5657.77    5935.4325    5529.1812    5508.6963    110.22807    33.344951    33.344951
Averages over the last 6 of 12 rows, steps 5920000 to 6016077:
Temp PotEng TotEng Press Pxx Pyy Pzz Lx Ly Lz
301.329 -24149.8 -23925.5 5684.92 5908.33 5561.69 5584.72 110.228 33.345 33.345
Loop time of 276.106 on 16 procs for 200000 steps with 5760 atoms

unfix           NVE
write_restart   restart.anneal.NVE.*
# ------------ Pressure Relaxation -----------------------------------------
fix             NPT all npt temp $T $T 0.05 x 0 0 0.5 y 0 0 0.5 z 0 0 0.5 couple none tchain 10
fix             NPT all npt temp 300 $T 0.05 x 0 0 0.5 y 0 0 0.5 z 0 0 0.5 couple none tchain 10
fix             NPT all npt temp 300 300 0.05 x 0 0 0.5 y 0 0 0.5 z 0 0 0.5 couple none tchain 10
run             200000
Step Temp PotEng TotEng Press Pxx Pyy Pzz Lx Ly Lz
6016077     299.9502   -24148.776    -23925.49    5716.1589     5936.317    5607.5381    5604.6215    110.22807    33.344951    33.344951
Averages over the last 6 of 12 rows, steps 6120000 to 6216077:
Temp PotEng TotEng Press Pxx Pyy Pzz Lx Ly Lz
298.547 -24148.4 -23926.1 -160.349 -324.235 -53.8211 -102.991 110.547 33.4105 33.4134
Loop time of 325.37 on 16 procs for 200000 steps with 5760 atoms

unfix           NPT
write_restart   restart.NPT.300.*
# -------------- NVE Equilibration ----------------------------------
fix             NVE all nve
dump            snapNVEPxyz all custom 200000 snap.NVE.pressure.lammpstrj id type x y z
run             200000
Step Temp PotEng TotEng Press Pxx Pyy Pzz Lx Ly Lz
6216077    304.91475    -24146.99   -23920.009    252.06831    183.43179    444.73084     128.0423    110.51594    33.405124    33.416373
Averages over the last 6 of 12 rows, steps 6320000 to 6416077:
Temp PotEng TotEng Press Pxx Pyy Pzz Lx Ly Lz
303.81 -24146.2 -23920 186.683 133.478 340.3 86.2728 110.516 33.4051 33.4164
Loop time of 289.096 on 16 procs for 200000 steps with 5760 atoms

unfix           NVE
write_restart   restart.NVE.pressure.*

write_restart   restart.final.*
write_data	data.relaxed nocoeff
